@<TRIPOS>MOLECULE
MOL
    3     2     1     0     0
SMALL
bcc


@<TRIPOS>ATOM
      1 OH2          7.7510    22.8250    15.0610 oh       335 MOL      -0.785000
      2 H1           8.5160    22.2400    15.1100 ho       335 MOL       0.392000
      3 H2           7.4760    22.9450    15.9880 ho       335 MOL       0.392000
@<TRIPOS>BOND
     1     1     2 1   
     2     1     3 1   
@<TRIPOS>SUBSTRUCTURE
     1 MOL         1 TEMP              0 ****  ****    0 ROOT
