@<TRIPOS>MOLECULE
MOL
    3     2     1     0     0
SMALL
bcc


@<TRIPOS>ATOM
      1 O           38.2810    41.0380    42.7250 oh       335 MOL      -0.785000
      2 H1          38.9290    41.7290    42.9470 ho       335 MOL       0.392000
      3 H2          37.5230    41.2150    43.3090 ho       335 MOL       0.392000
@<TRIPOS>BOND
     1     1     2 1   
     2     1     3 1   
@<TRIPOS>SUBSTRUCTURE
     1 MOL         1 TEMP              0 ****  ****    0 ROOT
